Circuit: * C:\Users\Sohaib Mahmood\Documents\LTspiceXVII\Projects\555AstableFlipFlop.asc

WARNING: Less than two connections to node VCC.  This node is used by D1.
Direct Newton iteration for .op point succeeded.

Date: Tue Feb 19 20:41:15 2019
Total elapsed time: 0.162 seconds.

tnom = 27
temp = 27
method = modified trap
totiter = 8504
traniter = 8474
tranpoints = 2345
accept = 2037
rejected = 308
matrix size = 14
fillins = 0
solver = Normal
Matrix Compiler1: 402 bytes object code size  0.3/0.2/[0.1]
Matrix Compiler2: off  [0.1]/0.2/0.1

